Circuit: * C:\Users\ellio\Desktop\School\ECE 445\brainstorming\IFBoard\DesignFilesBetterTols\LTspice\ACAnalysis.asc

Direct Newton iteration failed to find .op point.  (Use ".option noopiter" to skip.)
Starting Gmin stepping
Increasing initial diagonal Gmin to 100
Increasing initial diagonal Gmin to 1000
Gmin = 1000
Gmin = 107.374
Gmin = 11.5292
Gmin = 1.23794
Gmin = 0.132923
Gmin = 0.0142725
Gmin = 0.0015325
Gmin = 0.00016455
Gmin = 1.76685e-05
Gmin = 1.89714e-06
Gmin = 2.03704e-07
Gmin = 2.18725e-08
Gmin = 2.34854e-09
Gmin = 2.52173e-10
Gmin = 2.70769e-11
Gmin = 2.90735e-12
Gmin = 3.12175e-13
Gmin = 0
Gmin stepping succeeded in finding the operating point.


Date: Wed Feb 28 19:20:40 2024
Total elapsed time: 0.085 seconds.

tnom = 27
temp = 27
method = trap
totiter = 888
traniter = 0
tranpoints = 0
accept = 0
rejected = 0
matrix size = 51
fillins = 71
solver = Normal
Avg thread counts: 9.1/0.0/20.0/7.5
Matrix Compiler1:     443 opcodes
Matrix Compiler2: off  [0.3]/0.5/0.5

