Circuit: * C:\Users\ellio\Desktop\School\ECE 445\brainstorming\IFBoard\DesignFilesBetterTols\LTspice\Draft1.asc

Direct Newton iteration failed to find .op point.  (Use ".option noopiter" to skip.)
Starting Gmin stepping
Gmin = 10
Gmin = 1.07374
vernier = 0.5
vernier = 0.25
vernier = 0.125
vernier = 0.0625
Gmin = 0.995033
vernier = 0.03125
vernier = 0.015625
vernier = 0.0078125
vernier = 0.00390625
vernier = 0.00195312
vernier = 0.000976562
Gmin = 1.00273
vernier = 0.000488281
Gmin = 0
Gmin stepping failed

Starting source stepping with srcstepmethod=0
Source Step = 3.0303%
vernier = 0.25
Source Step = 2.84091%
Source Step = 4.73485%
Source Step = 6.62879%
Source Step = 8.52273%
Source Step = 10.4167%
vernier = 0.09375
Source Step = 12.8788%
Source Step = 15.7197%
Source Step = 18.5606%
Source Step = 21.4015%
Source Step = 24.2424%
vernier = 0.140625
Source Step = 27.7936%
Source Step = 32.0549%
Source Step = 36.3163%
Source Step = 40.5777%
Source Step = 44.839%
vernier = 0.210938
Source Step = 49.9527%
Source Step = 56.3447%
Source Step = 62.7367%
Source Step = 69.1288%
Source Step = 75.5208%
vernier = 0.316406
Source Step = 82.8717%
Source Step = 92.4598%
Source stepping succeeded in finding the operating point.


Date: Tue Mar 19 02:29:27 2024
Total elapsed time: 0.482 seconds.

tnom = 27
temp = 27
method = modified trap
totiter = 24825
traniter = 22143
tranpoints = 10627
accept = 8530
rejected = 2097
matrix size = 138
fillins = 471
solver = Normal
Avg thread counts: 1.3/1.7/1.7/1.3
Matrix Compiler1: 42.13 KB object code size  5.5/2.8/[1.6]
Matrix Compiler2: 19.37 KB object code size  0.8/2.5/[0.4]

