Circuit: * C:\Users\ellio\Desktop\School\ECE 445\brainstorming\IFBoard\DesignFilesBetterTols\LTspice\TransientAnalysis.asc

WARNING: Node OUT is floating.

WARNING: Less than two connections to node out.  This node is used by c1.
Direct Newton iteration failed to find .op point.  (Use ".option noopiter" to skip.)
Starting Gmin stepping
Increasing initial diagonal Gmin to 100
Increasing initial diagonal Gmin to 1000
Gmin = 1000
Gmin = 107.374
Gmin = 11.5292
Gmin = 1.23794
Gmin = 0.132923
Gmin = 0.0142725
Gmin = 0.0015325
Gmin = 0.00016455
Gmin = 1.76685e-05
Gmin = 1.89714e-06
Gmin = 2.03704e-07
Gmin = 2.18725e-08
Gmin = 2.34854e-09
Gmin = 2.52173e-10
Gmin = 2.70769e-11
Gmin = 2.90735e-12
Gmin = 3.12175e-13
Gmin = 0
Gmin stepping succeeded in finding the operating point.


Date: Wed Feb 28 19:21:16 2024
Total elapsed time: 0.320 seconds.

tnom = 27
temp = 27
method = modified trap
totiter = 3193
traniter = 2305
tranpoints = 1123
accept = 1103
rejected = 20
matrix size = 52
fillins = 73
solver = Normal
Avg thread counts: 4.2/7.6/7.6/4.2
Matrix Compiler1: 8.25 KB object code size  2.9/1.1/[0.5]
Matrix Compiler2: 7.25 KB object code size  1.3/1.8/[0.7]

